*********************************************************************
** Abaqus/fromNastran 6.13-1
**
** reading bulk data from: D:\HIAD\August2014\Iter5\3.7m_NoTriTor_15psi.bdf
**  creating Abaqus input: D:\HIAD\August2014\Iter5\3.7m_NoTriTor_15psi.inp
** writing diagnostics to: D:\HIAD\August2014\Iter5\3.7m_NoTriTor_15psi.log
**
**  environment variables: fromnastran_wtmass_fixup <not present>
**                       : fromnastran_distribution <not present>
**                       : fromnastran_pbar_zero_reset <not present>
**                       : fromnastran_loadcases <not present>
**                       : fromnastran_surface_based_coupling <not present>
**                       : fromnastran_cquad4 <not present>
**                       : fromnastran_chexa <not present>
**                       : fromnastran_ctetra <not present>
**                       : fromnastran_cbar <not present>
**                       : fromnastran_beam_offset_coupling <not present>
**                       : fromnastran_beam_orientation_vector <not present>
**                       : fromnastran_shell_general_section <not present>
**                       : fromnastran_eigensolver <not present>
**                       : fromnastran_plotel <not present>
**                       : fromnastran_cdh_weld <not present>
**                       : fromnastran_spoint_dof <not present>
**
** command line arguments: wtmass_fixup <not present>
**                       : distribution <not present>
**                       : pbar_zero_reset <not present, using default=1e-20>
**                       : loadcases <not present>
**                       : surface_based_coupling <not present>
**                       : cquad4 <not present>
**                       : chexa <not present>
**                       : ctetra <not present>
**                       : cbar <not present>
**                       : beam_offset_coupling <not present>
**                       : beam_orientation_vector <not present>
**                       : shell_general_section <not present>
**                       : plotel <not present>
**                       : cdh_weld <not present>
**                       : eigensolver <not present>
**                       : spoint_dof <not present, using default=9>
**
** --------------------------------
** Nastran Case Control entities processed:
**      keyword   number
** ------------   ------
**   BEGIN BULK        1
** DISPLACEMENT        2
**         LOAD        2
**          SPC        2
**    SPCFORCES        2
**      SUBCASE        2
**     SUBTITLE        2
**        TITLE        1
** --------------------------------
** Nastran Case Control entities not processed:
**      keyword   number
** ------------   ------
**         ECHO        1
**       NLPARM        2
**       STRESS        2
** --------------------------------
** Nastran Bulk Data processed:
**      keyword   number
** ------------   ------
**        CBEAM      334
**       CORD2C        2
**       CQUAD4    10354
**       CTRIA3       76
**      ENDDATA        1
**         GRID    10359
**         LOAD        2
**         MAT1        5
**         MAT8        1
**        PARAM        5
**       PLOAD4      197
**       PSHELL       13
**         SPC1       40
**       SPCADD        1
**       PBEAML        1
** --------------------------------
** Nastran Bulk Data not processed:
**      keyword   number
** ------------   ------
**        MATS1        2
**       NLPARM        2
**      TABLES1        2
**
** environment_variable / command_line_argument summary:
** PARAM,WTMASS will be used to adjust structural mass/density
** *DISTRIBUTION will be used for shell offsets, orientations, and thicknesses
**  shell elements will be grouped by PSHELL ID
** Zero PBAR/PBEAM cross sectional parameters will be reset to 1e-20
** Rigid links will be modeled using non-surface-based constraints
** Beam orientations will use a third node on the element connectivity
** Beam offsets will be modeled using rigid couplings and extra nodes
** PSHELL/PCOMP will default to *SHELL SECTION
** PLOTELs will not be translated
** "CDH welds" (isolated CHEXAs with 8 RBE3s) will not be translated to
**  rigid fasteners
** CWELDs will be translated to compliant fasteners
** CQUAD4 elements will be translated to S4R
** SPOINT DOF 0 will be reset to 9 in DMIG, MPC, CELAS2, and CMASS2 data
** found PARAM WTMASS .00259
****************************************
** Found mass multiplier not equal to 1:
** PARAM, WTMASS, 0.00259
** Nastran mass and density are inconsistent with other units.
** Abaqus data for density, mass, and rotary inertia
** will be multiplied by this factor.
****************************************
**
** ---------------------------------------------------
** ---- *HEADING--------------------------------------
** ---------------------------------------------------
**
*HEADING
TITLE = MSC.Nastran job created on 25-Jun-14 at 11:03:52
**
**
***Added
*ORIENTATION, NAME=coord_0deg, SYSTEM=RECTANGULAR, DEFINITION=NODES
    11766, 11765, 2678
*ORIENTATION, NAME=coord_chevron, SYSTEM=RECTANGULAR, DEFINITION=NODES
    11972, 11970, 2731
*ORIENTATION, NAME=coord_15deg, SYSTEM=RECTANGULAR, DEFINITION=NODES
    11238, 11239, 2920
***
** following nodes are in a local coordinate system
** defined using CORD2C with CID = 1
**
**
** following nodes are in a local coordinate system
** defined using CORD2C with CID = 1
**
*SYSTEM
0., 0., 0., 1., 0., 0.
0., 1., 0.
**
*NODE, SYSTEM=C
** node ID, R, theta, Z
1, 11.5251, 0., 4.6923
2, 10.4698, 0., 4.92334
3, 12.612, 0., 4.70596
4, 16.6671, 0., 8.66336
5, 16.4175, 0., 7.7132
6, 15.9636, 0., 6.81982
7, 15.3023, 0., 6.01738
8, 14.4555, 0., 5.35791
9, 13.5664, 0., 4.9333
10, 7.5, 0., 9.87832
11, 7.5, 0., 8.91146
12, 7.5, 15., 9.87832
13, 7.5, 15., 8.91146
14, 7.5, 7.66213, 9.87832
15, 7.5, 7.66213, 8.91146
16, 16.3943, 0., 10.5117
17, 16.0726, 0., 11.3881
18, 12.2846, 0., 14.1135
19, 13.2665, 0., 13.9479
20, 14.2248, 0., 13.5616
** ... 10341 like lines cut
**
** ---------------------------------------------------
** ---- *TRANSFORM -----------------------------------
** ---------------------------------------------------
**
** following nodes have displacement coordinate systems
** defined using CORD2C with CID = 1
**
*TRANSFORM, TYPE=C, NSET=NS_TR_CID_1
0., 0., 0., 0., 0., 1.
**
*NSET, NSET=NS_TR_CID_1
1, 2, 3, 4, 5,
6, 7, 8, 9, 10,
11, 12, 13, 14, 15,
16, 17, 18, 19, 20,
21, 22, 23, 24, 25,
26, 27, 28, 29, 30,
31, 32, 33, 34, 35,
36, 37, 38, 39, 40,
41, 42, 43, 44, 45,
46, 47, 48, 49, 50,
51, 52, 53, 54, 55,
56, 57, 58, 59, 60,
61, 62, 63, 64, 65,
66, 67, 68, 69, 70,
71, 72, 73, 74, 75,
76, 77, 78, 79, 80,
81, 82, 83, 84, 85,
86, 87, 88, 89, 90,
91, 92, 93, 94, 95,
96, 97, 98, 99, 100,
** ... 2048 like lines cut
**
** following nodes have displacement coordinate systems
** defined using CORD2C with CID = 2
**
*TRANSFORM, TYPE=C, NSET=NS_TR_CID_2
11.7899, 1.55217, 9.37826, 11.7899, -13.5926, 9.37826
**
*NSET, NSET=NS_TR_CID_2
173, 2611, 2619, 2625, 10516,
10533, 10534, 10535, 10537, 10538,
10539, 10546, 10548, 10549, 10551,
10558, 10559, 10560, 10562, 10563,
10564, 10575, 10576, 10578,
**
** ---------------------------------------------------
** ---- *MATERIAL ------------------------------------
** ---------------------------------------------------
** PARAM, WTMASS, 0.00259 has been used to
** modify DENSITY for all materials
**
** material data from MAT1 with MID = 3
**
*MATERIAL, NAME=MAT_MID_3
*ELASTIC
1.7e+06, 0.1
*DENSITY
5.439e-05,
**
** material data from MAT1 with MID = 2
**
** This MAT1 had inconsistent E, G, and NU:
** E = 2.4e+06  G = 909091.  NU = 0.1
** G differs from E/(2*(1+NU)) by 20. percent
**
*MATERIAL, NAME=MAT_MID_2
*ELASTIC
2.4e+06, 0.1
*DENSITY
0.00011914,
**
** material data from MAT1 with MID = 5
**
*MATERIAL, NAME=MAT_MID_5
*ELASTIC
2.2e+06, 0.1
*DENSITY
5.439e-05,
**
** material data from MAT1 with MID = 6
**
*MATERIAL, NAME=MAT_MID_6
*ELASTIC
2.2e+06, 0.1
*DENSITY
5.439e-05,
**
** material data from MAT1 with MID = 4
**
*MATERIAL, NAME=MAT_MID_4
*ELASTIC
2.2e+06, 0.1
*DENSITY
5.439e-05,
**
** material data from MAT8 with MID = 1
**
*MATERIAL, NAME=MAT_MID_1
*ELASTIC, TYPE=LAMINA
** E1, E2, nu12, G12, G13, G23
251600., 5368., 6.259, 204000., 1e+07, 1e+07
*DENSITY
0.00011137,
**
***SECTION CONTROLS, NAME=REDUCED_INTEGRATION_FROMNASTRAN
**
** ---------------------------------------------------
** ---- BEAM elements --------------------------------
** ---------------------------------------------------
** PARAM, WTMASS, 0.00259 has been used to
** modify DENSITY on the *BEAM GENERAL SECTION keyword
**
** nodes created for defining beam orientations
**
*SYSTEM
*NODE
**
   20001,   9.4399776,  0.99999654,    14.40238
   20002,   9.4089127,   1.2364001,    14.40238
   20003,   9.2401389,          0.,   14.369936
   20004,   9.6630288,  0.50019496,    14.37767
   20005,   9.1140309,   2.4569163,   12.403911
   20006,   9.3366117,   1.9656403,   12.398164
   20007,   9.7441309,          0.,   6.3535353
   20008,   9.2764802,  0.50019396,   6.3730181
   20009,   9.4391251,   0.9999969,   6.3858562
   20010,   9.4080744,   1.2362897,   6.3858562
   20011,   9.4362795,   1.4725827,    6.384099
   20012,   9.2211902,   1.9654162,      6.3903
   20013,   17.977093,          0.,   17.542667
   20014,   17.970137,  0.50004518,   17.542667
   20015,   17.949259,   0.9999814,   17.542667
   20016,   17.912979,   1.4486039,   17.542667
   20017,   17.876699,   1.8972262,   17.542667
   20018,   17.817993,    2.343559,   17.542667
   20019,   17.759289,    2.789892,   17.542667
   20020,   17.678349,   3.2325497,   17.542667
** ... 314 like lines cut
**
** following elements refer to a PBEAML (TYPE=ROD) entry with PID = 2 and MID = 2
***BEAM SECTION, SECTION=CIRC, ELSET=ES_PID_BEAM_2, MATERIAL=MAT_MID_2
** radius
**0.165,
**
** Axial Cords, E = 2.0e+06 psi
*BEAM GENERAL SECTION, DENSITY=0.00011914, SECTION=NONLINEAR GENERAL, ELSET=ES_PID_BEAM_2
0.08553, 5.8214E-04, 0.0, 5.8214E-04, 1.1643E-03
*SECTION POINTS
    0.,0.
***
** Zylon Cord AS9396
*AXIAL, ELASTIC
-300., -1.0
0.0, 0.000000
15.1, 0.000259
96.1, 0.001532
118.2, 0.001851
208.6, 0.003066
239.2, 0.003450
337.9, 0.004616
378.6, 0.005070
478.8, 0.006132
528.2, 0.006632
635.0, 0.007666
697.7, 0.008248
804.4, 0.009202
878.2, 0.009839
983.7, 0.010720
1069.1, 0.011412
1174.0, 0.012238
1273.6, 0.013001
1375.5, 0.013763
** ... 27 like lines cut
*M1, LINEAR
1.0
*M2, LINEAR
1.0
*TORQUE, LINEAR
1.0
**
*ELEMENT, TYPE=B31, ELSET=ES_PID_BEAM_2
12076,   2627, 4020, 20001
12077,   4020, 2628, 20002
12078,   2624, 3246, 20003
12079,   3246, 2627, 20004
12080,   2597, 4023, 20005
12081,   4023, 2628, 20006
12082,   2616, 3158, 20007
12083,   3158, 2615, 20008
12084,   2615, 3863, 20009
12085,   3863, 2610, 20010
12086,   2610, 3885, 20011
12087,   3885, 2609, 20012
12088,   29, 3251, 20013
12089,   3251, 2083, 20014
12090,   2083, 9068, 20015
12091,   9068, 2085, 20016
12092,   2085, 9072, 20017
12093,   9072, 2084, 20018
12094,   2084, 9076, 20019
12095,   9076, 2105, 20020
** ... 314 like lines cut
** add cord shunt element to this group
112502, 12158, 12161, 2818
**112503, 12161, 1372, 86
112503, 12161, 6943, 86
**
** elset ALL_B31_BARL contains 334 elements in 1 elsets
*ELSET, ELSET=ALL_B31_BARL
ES_PID_BEAM_2,
**
** ---------------------------------------------------
** --- SHELL elements (with directional properties) --
** ---------------------------------------------------
**
** this SHELL SECTION comes from a PSHELL entry with PID = 1
**
*SHELL SECTION, ELSET=PSHELL_DIST_1,
**CONTROLS=REDUCED_INTEGRATION_FROMNASTRAN,
 MATERIAL=MAT_MID_1,
 ORIENTATION=SHELL_STAR_ORIENTATION_DIST
0.02,
**
*ELEMENT, TYPE=S3, ELSET=PSHELL_DIST_1
9831, 3162, 3887, 182
9833, 3941, 202, 3887
9834, 9111, 2065, 9112
9836, 2054, 9111, 9101
9837, 9138, 2068, 9139
9839, 2069, 9138, 9132
9840, 3562, 9663, 2236
9841, 10058, 2405, 10059
9842, 9635, 2226, 9636
9843, 9720, 9722, 2295
9844, 9475, 9477, 2206
9845, 9613, 2224, 9591
9846, 10338, 2518, 3483
9848, 4447, 363, 4448
9849, 4371, 2111, 4372
9850, 3989, 225, 4003
9851, 2625, 10515, 10568
9853, 173, 10552, 10542
9856, 350, 4447, 4434
9858, 3994, 4003, 224
** ... 48 like lines cut
**
*ELEMENT, TYPE=S4, ELSET=PSHELL_DIST_1
1, 3, 3146, 3148, 3147
2, 3146, 182, 3149, 3148
3, 3147, 3148, 3150, 1
4, 3148, 3149, 176, 3150
5, 1, 3150, 3152, 3151
6, 3150, 176, 3153, 3152
7, 3151, 3152, 3154, 2
8, 3152, 3153, 177, 3154
9, 2, 3154, 3156, 3155
10, 3154, 177, 3157, 3156
11, 3155, 3156, 3158, 2616
12, 3156, 3157, 2615, 3158
13, 3, 3159, 3160, 3146
14, 3159, 9, 3161, 3160
15, 3146, 3160, 3162, 182
16, 3160, 3161, 201, 3162
17, 38, 3163, 3165, 3164
18, 3163, 2067, 3166, 3165
19, 3164, 3165, 3167, 4
20, 3165, 3166, 185, 3167
** ... 7957 like lines cut
**
** this SHELL SECTION comes from a PSHELL entry with PID = 4
**
*SHELL SECTION, ELSET=PSHELL_DIST_4,
**CONTROLS=REDUCED_INTEGRATION_FROMNASTRAN,
 MATERIAL=MAT_MID_1,
 ORIENTATION=SHELL_STAR_ORIENTATION_DIST
0.04,
**
*ELEMENT, TYPE=S3, ELSET=PSHELL_DIST_4
10076, 4532, 4533, 397
10081, 4522, 385, 4533
10084, 377, 4502, 4501
10136, 1831, 7193, 7192
**
*ELEMENT, TYPE=S4, ELSET=PSHELL_DIST_4
65, 38, 3163, 3211, 3210
66, 3163, 2067, 3212, 3211
67, 3210, 3211, 3213, 16
68, 3211, 3212, 209, 3213
69, 16, 3213, 3215, 3214
70, 3213, 209, 3216, 3215
71, 3214, 3215, 3217, 17
72, 3215, 3216, 210, 3217
73, 17, 3217, 3219, 3218
74, 3217, 210, 3220, 3219
75, 3218, 3219, 3221, 24
76, 3219, 3220, 2081, 3221
201, 70, 3337, 3347, 3346
202, 3337, 2583, 3348, 3347
203, 3346, 3347, 3349, 48
204, 3347, 3348, 373, 3349
205, 48, 3349, 3351, 3350
206, 3349, 373, 3352, 3351
207, 3350, 3351, 3353, 49
208, 3351, 3352, 374, 3353
** ... 571 like lines cut
**
** this SHELL SECTION comes from a PSHELL entry with PID = 6
**
*SHELL SECTION, ELSET=PSHELL_DIST_6,
**CONTROLS=REDUCED_INTEGRATION_FROMNASTRAN,
 MATERIAL=MAT_MID_1,
 ORIENTATION=SHELL_STAR_ORIENTATION_DIST,
 OFFSET=SHELL_OFFSET_DIST
0.053,
**
*ELEMENT, TYPE=S4, ELSET=PSHELL_DIST_6
7794, 1924, 7191, 9420, 9312
7795, 7191, 1923, 9421, 9420
7796, 9312, 9420, 9422, 2180
7797, 9420, 9421, 2186, 9422
7798, 1923, 7197, 9423, 9421
7799, 7197, 1922, 9207, 9423
7800, 9421, 9423, 9424, 2186
7801, 9423, 9207, 2185, 9424
7802, 2180, 9422, 9425, 9316
7803, 9422, 2186, 9426, 9425
7804, 9316, 9425, 9427, 2179
7805, 9425, 9426, 2187, 9427
7806, 2186, 9424, 9428, 9426
7807, 9424, 2185, 9225, 9428
7808, 9426, 9428, 9429, 2187
7809, 9428, 9225, 2184, 9429
7810, 2179, 9427, 9430, 9320
7811, 9427, 2187, 9431, 9430
7812, 9320, 9430, 9432, 2178
7813, 9430, 9431, 2188, 9432
** ... 36 like lines cut
**
** elset ALL_SHELL_ANISO contains 8696 elements in 3 elsets
*ELSET, ELSET=ALL_SHELL_ANISO
PSHELL_DIST_1,
PSHELL_DIST_4,
PSHELL_DIST_6,
**
** -----------------------------------------------------------------------
** --- SHELL elements (isotropic, non-directional, grouped by MATERIAL ID)
** -----------------------------------------------------------------------
**
** this SHELL SECTION comes from PSHELL entries with MID = 3
**
*SHELL SECTION, ELSET=PSHELL_MID_3,
**CONTROLS=REDUCED_INTEGRATION_FROMNASTRAN,
 MATERIAL=MAT_MID_3,
 SHELL THICKNESS=SHELL_THICKNESS_DIST,
***added
ORIENTATION=coord_0deg,
***
 OFFSET=SHELL_OFFSET_DIST
0.0285,
**
*ELEMENT, TYPE=S4, ELSET=PSHELL_MID_3
**
11666, 2682, 11719, 11721, 11720
11667, 11719, 2681, 11722, 11721
11668, 11720, 11721, 11723, 2674
11669, 11721, 11722, 2680, 11723
11670, 2674, 11723, 11725, 11724
11671, 11723, 2680, 11726, 11725
11672, 11724, 11725, 11727, 2673
11673, 11725, 11726, 2679, 11727
11674, 2673, 11727, 11729, 11728
11675, 11727, 2679, 11730, 11729
11676, 11728, 11729, 11731, 2672
11677, 11729, 11730, 2678, 11731
11678, 2683, 11732, 11734, 11733
11679, 11732, 2681, 11719, 11734
11680, 11733, 11734, 11735, 2684
11681, 11734, 11719, 2682, 11735
11682, 2686, 11736, 11738, 11737
11683, 11736, 2698, 11739, 11738
11684, 11737, 11738, 11733, 2684
11685, 11738, 11739, 2683, 11733
** ... 64 like lines cut
**
** this SHELL SECTION comes from PSHELL entries with MID = 4
**
*SHELL SECTION, ELSET=PSHELL_MID_4,
**CONTROLS=REDUCED_INTEGRATION_FROMNASTRAN,
 MATERIAL=MAT_MID_4,
 SHELL THICKNESS=SHELL_THICKNESS_DIST,
***added
 ORIENTATION=coord_chevron,
***
 OFFSET=SHELL_OFFSET_DIST
0.0165,
**
*ELEMENT, TYPE=S3, ELSET=PSHELL_MID_4
**
11791, 11795, 11830, 2662
11794, 2659, 11826, 11799
11816, 11831, 11849, 11850
11819, 2810, 11839, 11848
**
*ELEMENT, TYPE=S4, ELSET=PSHELL_MID_4
**
11750, 2661, 11792, 11793, 11789
11751, 11792, 2656, 11794, 11793
11752, 11789, 11793, 11795, 2662
11753, 11793, 11794, 2660, 11795
11754, 2656, 11796, 11797, 11794
11755, 11796, 2655, 11798, 11797
11756, 11794, 11797, 11799, 2660
11757, 11797, 11798, 2659, 11799
11758, 2655, 11800, 11801, 11798
11759, 11800, 2657, 11802, 11801
11760, 11798, 11801, 11803, 2659
11761, 11801, 11802, 2658, 11803
11762, 2657, 11804, 11805, 11802
11763, 11804, 2801, 11806, 11805
11764, 11802, 11805, 11807, 2658
11765, 11805, 11806, 2805, 11807
11766, 2801, 11808, 11809, 11806
11767, 11808, 2802, 11810, 11809
11768, 11806, 11809, 11811, 2805
11769, 11809, 11810, 2806, 11811
** ... 302 like lines cut
**
** this SHELL SECTION comes from PSHELL entries with MID = 5
**
*SHELL SECTION, ELSET=PSHELL_MID_5,
**CONTROLS=REDUCED_INTEGRATION_FROMNASTRAN,
 MATERIAL=MAT_MID_5,
 SHELL THICKNESS=SHELL_THICKNESS_DIST,
***Added
 ORIENTATION=coord_0deg,
***
 OFFSET=SHELL_OFFSET_DIST
0.0495,
**
*ELEMENT, TYPE=S4, ELSET=PSHELL_MID_5
**
10726, 38, 3164, 3165, 3163
10727, 3164, 4, 3167, 3165
10728, 3163, 3165, 3166, 2067
10729, 3165, 3167, 185, 3166
10730, 4, 3168, 3169, 3167
10731, 3168, 5, 3171, 3169
10732, 3167, 3169, 3170, 185
10733, 3169, 3171, 186, 3170
10734, 5, 3172, 3173, 3171
10735, 3172, 6, 3175, 3173
10736, 3171, 3173, 3174, 186
10737, 3173, 3175, 187, 3174
10738, 6, 3176, 3177, 3175
10739, 3176, 7, 3179, 3177
10740, 3175, 3177, 3178, 187
10741, 3177, 3179, 188, 3178
10742, 7, 3180, 3181, 3179
10743, 3180, 8, 3183, 3181
10744, 3179, 3181, 3182, 188
10745, 3181, 3183, 203, 3182
** ... 596 like lines cut
**
** this SHELL SECTION comes from PSHELL entries with MID = 6
**
*SHELL SECTION, ELSET=PSHELL_MID_6,
**CONTROLS=REDUCED_INTEGRATION_FROMNASTRAN,
 MATERIAL=MAT_MID_6,
 SHELL THICKNESS=SHELL_THICKNESS_DIST,
***Added
 ORIENTATION=coord_15deg,
***
 OFFSET=SHELL_OFFSET_DIST
0.0495,
**
*ELEMENT, TYPE=S4, ELSET=PSHELL_MID_6
**
10746, 2605, 3201, 3202, 3200
10747, 3201, 2614, 3199, 3202
10748, 3200, 3202, 3203, 13
10749, 3202, 3199, 15, 3203
10750, 13, 3203, 3205, 3204
10751, 3203, 15, 3195, 3205
10752, 3204, 3205, 3206, 12
10753, 3205, 3195, 14, 3206
10754, 12, 3206, 3208, 3207
10755, 3206, 14, 3191, 3208
10756, 3207, 3208, 3209, 2631
10757, 3208, 3191, 2632, 3209
11014, 183, 3869, 3877, 3876
11015, 3869, 179, 3879, 3877
11016, 3876, 3877, 3878, 184
11017, 3877, 3879, 180, 3878
11018, 179, 3872, 3880, 3879
11019, 3872, 178, 3882, 3880
11020, 3879, 3880, 3881, 180
11021, 3880, 3882, 181, 3881
** ... 656 like lines cut
**
** ---------------------------------------------------------------------
** --- SHELL elements (isotropic, non-directional, grouped by PSHELL ID)
** ---------------------------------------------------------------------
**
** this SHELL SECTION comes from PSHELL entries with PID = 13
**
*SHELL SECTION, ELSET=PSHELL_13,
**CONTROLS=REDUCED_INTEGRATION_FROMNASTRAN,
 MATERIAL=MAT_MID_5
0.033,
**
*ELEMENT, TYPE=S4, ELSET=PSHELL_13
**
10850, 79, 3405, 3407, 3406
10851, 3405, 2518, 3408, 3407
10852, 3406, 3407, 3409, 62
10853, 3407, 3408, 488, 3409
10854, 62, 3409, 3411, 3410
10855, 3409, 488, 3412, 3411
10856, 3410, 3411, 3386, 81
10857, 3411, 3412, 525, 3386
10938, 135, 3661, 3662, 3642
10939, 3661, 121, 3664, 3662
10940, 3642, 3662, 3663, 1236
10941, 3662, 3664, 1196, 3663
10942, 121, 3665, 3666, 3664
10943, 3665, 132, 3668, 3666
10944, 3664, 3666, 3667, 1196
10945, 3666, 3668, 2316, 3667
**
** this SHELL SECTION comes from PSHELL entries with PID = 14
**
*SHELL SECTION, ELSET=PSHELL_14,
**CONTROLS=REDUCED_INTEGRATION_FROMNASTRAN,
 MATERIAL=MAT_MID_6
0.033,
**
*ELEMENT, TYPE=S4, ELSET=PSHELL_14
**
11134, 2432, 5297, 5299, 5298
11135, 5297, 655, 5301, 5299
11136, 5298, 5299, 5300, 668
11137, 5299, 5301, 656, 5300
11138, 655, 5294, 5302, 5301
11139, 5294, 713, 5243, 5302
11140, 5301, 5302, 5303, 656
11141, 5302, 5243, 714, 5303
11238, 2119, 7238, 7240, 7142
11239, 7238, 1321, 7241, 7240
11240, 7142, 7240, 7242, 1945
11241, 7240, 7241, 1322, 7242
11242, 1321, 7235, 7243, 7241
11243, 7235, 1909, 7244, 7243
11244, 7241, 7243, 7245, 1322
11245, 7243, 7244, 1910, 7245
**
** elset ALL_SHELL_ISO contains 1734 elements in 6 elsets
*ELSET, ELSET=ALL_SHELL_ISO
PSHELL_MID_3,
PSHELL_MID_4,
PSHELL_MID_5,
PSHELL_MID_6,
PSHELL_13,
PSHELL_14,
**
** ---------------------------------------------------
** --- DISTRIBUTIONs for shell element OFFSETs -------
** ---------------------------------------------------
**
*DISTRIBUTION TABLE, NAME=SHELL_OFFSET_DIST_TABLE
RATIO,
**
*DISTRIBUTION, LOCATION=ELEMENT,
 NAME=SHELL_OFFSET_DIST,
 TABLE=SHELL_OFFSET_DIST_TABLE
 , 0.
**
** TRIA3 elements with nonzero offsets
11791, 2.10606
11794, 2.10606
11816, 2.10606
11819, 2.10606
**
** QUAD4 elements with nonzero offsets
11666, 0.640351
11667, 0.640351
11668, 0.640351
11669, 0.640351
11670, 0.640351
11671, 0.640351
11672, 0.640351
11673, 0.640351
11674, 0.640351
11675, 0.640351
11676, 0.640351
11677, 0.640351
11678, 0.640351
11679, 0.640351
11680, 0.640351
11681, 0.640351
11682, 0.640351
11683, 0.640351
11684, 0.640351
11685, 0.640351
** ... 1734 like lines cut
**
** ---------------------------------------------------
** --- DISTRIBUTIONs for shell element ORIENTATIONs --
** ---------------------------------------------------
**
*ORIENTATION, NAME=SHELL_STAR_ORIENTATION_DIST
SHELL_ORIENTATION_DIST,
3, 0.
**
*DISTRIBUTION TABLE, NAME=SHELL_ORIENTATION_DIST_TABLE
 COORD3D, COORD3D
**
*DISTRIBUTION, LOCATION=ELEMENT,
 NAME=SHELL_ORIENTATION_DIST,
 TABLE=SHELL_ORIENTATION_DIST_TABLE
 ,  1., 0., 0.,  0., 1., 0.
**
** QUAD4 elements with a blank in the THETA/MCID field
7794,  -0.124721, 0.992192, 0.,  0.101573, 0.012768, -0.994746
7795,  -0.124732, 0.99219, 0.,  0.0969582, 0.012189, -0.995214
7796,  -0.122313, 0.992486, -0.00342051,  0.00230407, -0.00316244, -0.999992
7797,  -0.129305, 0.991598, -0.00379756,  0.00554088, -0.00310712, -0.99998
7798,  -0.14259, 0.989782, 0.,  0.108999, 0.0157025, -0.993918
7799,  -0.142595, 0.989781, 0.,  0.103238, 0.0148733, -0.994545
7800,  -0.137918, 0.990439, 0.00307262,  0.00129462, 0.00328253, -0.999994
7801,  -0.147399, 0.989074, 0.00254841,  0.00730545, 0.00366518, -0.999967
7802,  -0.127522, 0.991816, -0.00617007,  -0.081264, -0.016648, -0.996554
7803,  -0.127522, 0.991816, -0.00617389,  -0.0863185, -0.017299, -0.996117
7804,  -0.124157, 0.992229, -0.00819273,  -0.184011, -0.0311371, -0.982431
7805,  -0.132258, 0.99119, -0.00712094,  -0.180381, -0.0311317, -0.983104
7806,  -0.143513, 0.989628, 0.00640262,  -0.0827076, -0.00554654, -0.996558
7807,  -0.14352, 0.989627, 0.00640639,  -0.0863465, -0.00607309, -0.996247
7808,  -0.138544, 0.990328, 0.00747362,  -0.185692, -0.0185638, -0.982433
7809,  -0.146659, 0.98915, 0.0085922,  -0.180353, -0.018198, -0.983434
7810,  -0.129193, 0.991578, -0.00906513,  -0.269175, -0.0438665, -0.962092
7811,  -0.129194, 0.991578, -0.00906133,  -0.273843, -0.0444588, -0.960746
7812,  -0.125875, 0.992002, -0.00939733,  -0.369017, -0.0556131, -0.927757
7813,  -0.133286, 0.991054, -0.00683168,  -0.365817, -0.0556026, -0.929024
** ... 36 like lines cut
**
** TRIA3 elements with coordinate system MCID in the THETA/MCID field
9831,  0.979894, 0.0858121, 0.18012,  -0.0872632, 0.996185, 0.000133178
9833,  0.952205, 0.109057, 0.285329,  -0.112834, 0.993609, -0.003221
9834,  0.866533, 0.136232, -0.480168,  -0.154464, 0.987997, 0.00155958
9836,  0.914769, 0.151209, -0.374612,  -0.161261, 0.986901, 0.00457015
9837,  0.632707, 0.0832297, -0.769906,  -0.130504, 0.991448, -6.89972e-05
9839,  0.692755, 0.106598, -0.713251,  -0.141214, 0.98992, 0.0107916
9840,  0.920422, 0.02619, 0.390047,  -0.0286295, 0.99959, 0.000441121
9841,  0.876334, 0.0446797, -0.479627,  -0.0514651, 0.998674, -0.0010012
9842,  0.918525, 0.062492, 0.390392,  -0.0678474, 0.997696, -7.28203e-05
9843,  0.876189, 0.0543278, -0.478896,  -0.0618304, 0.998087, 0.000101754
9844,  0.919381, 0.052021, 0.389913,  -0.0565355, 0.998401, 0.000102317
9845,  0.917677, 0.0715325, 0.390835,  -0.0775348, 0.99699, -0.000422765
9846,  0.615889, 0.0212767, -0.787545,  -0.0341948, 0.999415, 0.000259092
9848,  0.810389, 0.106356, 0.576157,  -0.130232, 0.991483, 0.000154058
9849,  0.990226, 0.104079, 0.0928455,  0.104694, -0.994503, -0.00177269
9850,  0.931942, 0.167591, -0.321555,  0.178254, -0.983977, 0.0037843
9851,  0.636424, 0.0889618, 0.766192,  0.136077, -0.990696, 0.0019986
9853,  0.635573, 0.0940423, -0.766292,  -0.141691, 0.989903, 0.00396401
9856,  0.741776, 0.107156, 0.662032,  -0.137338, 0.990503, -0.00644136
9858,  0.89096, 0.165293, -0.422929,  0.181034, -0.983472, -0.00299698
** ... 52 like lines cut
**
** QUAD4 elements with coordinate system MCID in the THETA/MCID field
1,  0.997325, 0.0201245, 0.0702662,  -0.0202707, 0.999794, 0.00136773
2,  0.995701, 0.0607681, 0.0699006,  -0.0608133, 0.998148, -0.00148339
3,  0.998746, 0.0211279, -0.0453779,  -0.0212045, 0.999774, -0.00120781
4,  0.996952, 0.0636059, -0.045178,  -0.0636169, 0.997974, 0.0011962
5,  0.986426, 0.0213331, -0.162818,  -0.0222145, 0.999747, -0.00359433
6,  0.985173, 0.0663832, -0.158203,  -0.0666469, 0.99777, 0.00364374
7,  0.964259, 0.0221933, -0.26403,  -0.02331, 0.999728, -0.00109714
8,  0.960917, 0.0678102, -0.268404,  -0.0699338, 0.99755, 0.00165241
9,  0.922992, 0.0188148, -0.384359,  -0.0244709, 0.999652, -0.00982983
10,  0.924424, 0.0719091, -0.374525,  -0.0734109, 0.997249, 0.0102755
11,  0.877015, 0.0219698, -0.479961,  -0.0257067, 0.999669, -0.00121403
12,  0.876059, 0.068899, -0.477256,  -0.0771059, 0.99702, 0.00239792
13,  0.983478, 0.0193365, 0.179992,  -0.0194654, 0.99981, -0.00105011
14,  0.959001, 0.016489, 0.282923,  -0.0187677, 0.99981, 0.00534529
15,  0.982784, 0.057335, 0.175637,  -0.0583957, 0.998293, 0.000872896
16,  0.956366, 0.0556046, 0.28683,  -0.0563022, 0.998397, -0.00582194
17,  0.032112, -0.675446, -0.73671,  0.0110334, -0.736806, 0.676014
18,  -0.0297769, 0.998432, -0.0474086,  0.00212945, -0.0473661, -0.998875
19,  0.101299, 0.0022569, 0.994853,  -0.0149953, 0.999887, -0.000741455
20,  0.101143, 0.00466562, 0.994861,  -0.0449727, 0.998988, -0.000112791
** ... 8548 like lines cut
**
** ---------------------------------------------------
** --- DISTRIBUTIONs for shell element thicknesses ---
** ---------------------------------------------------
**
*DISTRIBUTION TABLE, NAME=SHELL_THICKNESS_DIST_TABLE
LENGTH,
**
*DISTRIBUTION, LOCATION=ELEMENT,
 NAME=SHELL_THICKNESS_DIST,
 TABLE=SHELL_THICKNESS_DIST_TABLE
 , 1.
**
** TRIA3 element thicknesses
11791, 0.0165
11794, 0.0165
11816, 0.0165
11819, 0.0165
**
** QUAD4 element thicknesses
11666, 0.0285
11667, 0.0285
11668, 0.0285
11669, 0.0285
11670, 0.0285
11671, 0.0285
11672, 0.0285
11673, 0.0285
11674, 0.0285
11675, 0.0285
11676, 0.0285
11677, 0.0285
11678, 0.0285
11679, 0.0285
11680, 0.0285
11681, 0.0285
11682, 0.0285
11683, 0.0285
11684, 0.0285
11685, 0.0285
** ... 1678 like lines cut
**
** CHEV_TOROID_T3
**
*SURFACE, TYPE=ELEMENT, NAME=M_CHEV_TOROID_T3
     271, SNEG
     290, SNEG
     292, SNEG
     302, SNEG
     304, SNEG
     313, SNEG
     314, SNEG
     315, SNEG
     316, SNEG
    8010, SNEG
    8011, SNEG
    8012, SNEG
    8013, SNEG
    8034, SNEG
    8035, SNEG
    8036, SNEG
    8037, SNEG
    9101, SNEG
    9103, SNEG
    9105, SNEG
** ... 6 like lines cut
*SURFACE, TYPE=ELEMENT, NAME=S_CHEV_TOROID_T3
   11771, SPOS
   11773, SPOS
   11774, SPOS
   11776, SPOS
   11795, SPOS
   11796, SPOS
   11797, SPOS
   11798, SPOS
   11799, SPOS
   11800, SPOS
   11801, SPOS
   11802, SPOS
   11804, SPOS
   11806, SPOS
   11808, SPOS
   11810, SPOS
   11811, SPOS
   11812, SPOS
   11813, SPOS
   11814, SPOS
** ... 5 like lines cut
**
*CONTACT PAIR, INTERACTION=CHEV_TOROID_T3
S_CHEV_TOROID_T3, M_CHEV_TOROID_T3
*SURFACE INTERACTION, NAME=CHEV_TOROID_T3
*FRICTION
0.2,
**
** CHEV_TOROID_T4
**
*SURFACE, TYPE=ELEMENT, NAME=M_CHEV_TOROID_T4
    8002, SNEG
    8003, SNEG
    8004, SNEG
    8005, SNEG
    8006, SNEG
    8007, SNEG
    8008, SNEG
    8009, SNEG
    8102, SNEG
    8103, SNEG
    8104, SNEG
    8105, SNEG
    8106, SNEG
    8107, SNEG
    8108, SNEG
    8109, SNEG
    8906, SNEG
    8907, SNEG
    8910, SNEG
    8911, SNEG
** ... 4 like lines cut
*SURFACE, TYPE=ELEMENT, NAME=S_CHEV_TOROID_T4
   11996, SPOS
   11997, SPOS
   12000, SPOS
   12001, SPOS
   12052, SPOS
   12053, SPOS
   12054, SPOS
   12055, SPOS
   12056, SPOS
   12057, SPOS
   12058, SPOS
   12059, SPOS
   12060, SPOS
   12061, SPOS
   12062, SPOS
   12063, SPOS
   12064, SPOS
   12065, SPOS
   12066, SPOS
   12067, SPOS
** ... 4 like lines cut
**
*CONTACT PAIR, INTERACTION=CHEV_TOROID_T4
S_CHEV_TOROID_T4, M_CHEV_TOROID_T4
*SURFACE INTERACTION, NAME=CHEV_TOROID_T4
*FRICTION
0.2,
**
** CHEV_TOROID_T5
**
*SURFACE, TYPE=ELEMENT, NAME=M_CHEV_TOROID_T5
    7950, SNEG
    7951, SNEG
    7952, SNEG
    7953, SNEG
    7954, SNEG
    7955, SNEG
    7956, SNEG
    7957, SNEG
    8070, SNEG
    8071, SNEG
    8072, SNEG
    8073, SNEG
    8074, SNEG
    8075, SNEG
    8076, SNEG
    8077, SNEG
    8438, SNEG
    8440, SNEG
    8442, SNEG
    8444, SNEG
** ... 4 like lines cut
*SURFACE, TYPE=ELEMENT, NAME=S_CHEV_TOROID_T5
   11973, SPOS
   11975, SPOS
   11977, SPOS
   11979, SPOS
   11980, SPOS
   11981, SPOS
   11982, SPOS
   11983, SPOS
   11984, SPOS
   11985, SPOS
   11986, SPOS
   11987, SPOS
   11988, SPOS
   11989, SPOS
   11990, SPOS
   11991, SPOS
   11992, SPOS
   11993, SPOS
   11994, SPOS
   11995, SPOS
** ... 4 like lines cut
**
*CONTACT PAIR, INTERACTION=CHEV_TOROID_T5
S_CHEV_TOROID_T5, M_CHEV_TOROID_T5
*SURFACE INTERACTION, NAME=CHEV_TOROID_T5
*FRICTION
0.2,
**
** CHEV_TOROID_T6
**
*SURFACE, TYPE=ELEMENT, NAME=M_CHEV_TOROID_T6
    7862, SNEG
    7863, SNEG
    7864, SNEG
    7865, SNEG
    7866, SNEG
    7867, SNEG
    7868, SNEG
    7869, SNEG
    7930, SNEG
    7931, SNEG
    7932, SNEG
    7933, SNEG
    7934, SNEG
    7935, SNEG
    7936, SNEG
    7937, SNEG
    8186, SNEG
    8187, SNEG
    8190, SNEG
    8191, SNEG
*SURFACE, TYPE=ELEMENT, NAME=S_CHEV_TOROID_T6
   11908, SPOS
   11909, SPOS
   11910, SPOS
   11911, SPOS
   11912, SPOS
   11913, SPOS
   11914, SPOS
   11915, SPOS
   11916, SPOS
   11917, SPOS
   11918, SPOS
   11919, SPOS
   11920, SPOS
   11921, SPOS
   11922, SPOS
   11923, SPOS
   11924, SPOS
   11926, SPOS
   11928, SPOS
   11930, SPOS
**
*CONTACT PAIR, INTERACTION=CHEV_TOROID_T6
S_CHEV_TOROID_T6, M_CHEV_TOROID_T6
*SURFACE INTERACTION, NAME=CHEV_TOROID_T6
*FRICTION
0.2,
**
** CHEV_TOROID_T6_Tied
**
*SURFACE, TYPE=ELEMENT, NAME=M_CHEV_TOROID_T6_TIED
    7794, SNEG
    7795, SNEG
    7796, SNEG
    7797, SNEG
    7798, SNEG
    7799, SNEG
    7800, SNEG
    7801, SNEG
    7802, SNEG
    7803, SNEG
    7804, SNEG
    7805, SNEG
    7806, SNEG
    7807, SNEG
    7808, SNEG
    7809, SNEG
    7810, SNEG
    7811, SNEG
    7812, SNEG
    7813, SNEG
** ... 28 like lines cut
*SURFACE, TYPE=ELEMENT, NAME=S_CHEV_TOROID_T6_TIED
   11862, SPOS
   11863, SPOS
   11866, SPOS
   11867, SPOS
   11868, SPOS
   11869, SPOS
   11870, SPOS
   11871, SPOS
   11872, SPOS
   11873, SPOS
   11874, SPOS
   11875, SPOS
   11876, SPOS
   11877, SPOS
   11878, SPOS
   11879, SPOS
   11880, SPOS
   11881, SPOS
   11882, SPOS
   11883, SPOS
** ... 24 like lines cut
**
*TIE, NAME=CHEV_TOROID_T6_TIED, POSITION TOLERANCE=0.02
S_CHEV_TOROID_T6_TIED, M_CHEV_TOROID_T6_TIED
**
** RADIAL_LOOP_T1
**
*SURFACE, TYPE=ELEMENT, NAME=M_RADIAL_LOOP_T1
   10710, SPOS
   10711, SPOS
   10712, SPOS
   10713, SPOS
   10714, SPOS
   10715, SPOS
   10716, SPOS
   10717, SPOS
   10718, SPOS
   10719, SPOS
   10720, SPOS
   10721, SPOS
   10722, SPOS
   10723, SPOS
   10724, SPOS
   10725, SPOS
   10742, SPOS
   10743, SPOS
   10744, SPOS
   10745, SPOS
** ... 12 like lines cut
*SURFACE, TYPE=ELEMENT, NAME=S_RADIAL_LOOP_T1
   11666, SPOS
   11667, SPOS
   11668, SPOS
   11669, SPOS
   11678, SPOS
   11679, SPOS
   11680, SPOS
   11681, SPOS
   11682, SPOS
   11683, SPOS
   11684, SPOS
   11685, SPOS
   11686, SPOS
   11687, SPOS
   11688, SPOS
   11689, SPOS
   11690, SPOS
   11691, SPOS
   11692, SPOS
   11693, SPOS
** ... 16 like lines cut
**
*CONTACT PAIR, INTERACTION=RADIAL_LOOP_T1
S_RADIAL_LOOP_T1, M_RADIAL_LOOP_T1
*SURFACE INTERACTION, NAME=RADIAL_LOOP_T1
*FRICTION
0.2,
**
** RADIAL_LOOP_T2
**
*SURFACE, TYPE=ELEMENT, NAME=M_RADIAL_LOOP_T2
   10692, SPOS
   10693, SPOS
   10694, SPOS
   10695, SPOS
   10696, SPOS
   10697, SPOS
   10698, SPOS
   10699, SPOS
   10700, SPOS
   10701, SPOS
   10702, SPOS
   10703, SPOS
   10704, SPOS
   10705, SPOS
   10706, SPOS
   10707, SPOS
   10708, SPOS
   10709, SPOS
   10816, SPOS
   10817, SPOS
** ... 12 like lines cut
*SURFACE, TYPE=ELEMENT, NAME=S_RADIAL_LOOP_T2
   11720, SPOS
   11721, SPOS
   11722, SPOS
   11723, SPOS
   11724, SPOS
   11725, SPOS
   11726, SPOS
   11727, SPOS
   11728, SPOS
   11729, SPOS
   11730, SPOS
   11731, SPOS
   11732, SPOS
   11733, SPOS
   11734, SPOS
   11735, SPOS
   11736, SPOS
   11737, SPOS
   11738, SPOS
   11739, SPOS
** ... 10 like lines cut
**
*CONTACT PAIR, INTERACTION=RADIAL_LOOP_T2
S_RADIAL_LOOP_T2, M_RADIAL_LOOP_T2
*SURFACE INTERACTION, NAME=RADIAL_LOOP_T2
*FRICTION
0.2,
**
** STRAP_TOROID1a_AFT
**
*SURFACE, TYPE=ELEMENT, NAME=M_STRAP_TOROID1A_AFT
      97, SNEG
      98, SNEG
      99, SNEG
     100, SNEG
     101, SNEG
     102, SNEG
     103, SNEG
     104, SNEG
    9410, SNEG
    9411, SNEG
*SURFACE, TYPE=ELEMENT, NAME=S_STRAP_TOROID1A_AFT
   10298, SPOS
   10300, SPOS
   11411, SPOS
   11413, SPOS
   11414, SPOS
   11415, SPOS
   11416, SPOS
   11417, SPOS
**
*CONTACT PAIR, INTERACTION=STRAP_TOROID1A_AFT
S_STRAP_TOROID1A_AFT, M_STRAP_TOROID1A_AFT
*SURFACE INTERACTION, NAME=STRAP_TOROID1A_AFT
*FRICTION
0.2,
**
** STRAP_TOROID1a_FWD
**
*SURFACE, TYPE=ELEMENT, NAME=M_STRAP_TOROID1A_FWD
       1, SNEG
       2, SNEG
      13, SNEG
      14, SNEG
      15, SNEG
      16, SNEG
      37, SNEG
      38, SNEG
      39, SNEG
      40, SNEG
*SURFACE, TYPE=ELEMENT, NAME=S_STRAP_TOROID1A_FWD
   10719, SPOS
   10721, SPOS
   11418, SPOS
   11419, SPOS
   11420, SPOS
   11421, SPOS
   11422, SPOS
   11424, SPOS
**
*CONTACT PAIR, INTERACTION=STRAP_TOROID1A_FWD
S_STRAP_TOROID1A_FWD, M_STRAP_TOROID1A_FWD
*SURFACE INTERACTION, NAME=STRAP_TOROID1A_FWD
*FRICTION
0.2,
**
** STRAP_TOROID1b_AFT
**
*SURFACE, TYPE=ELEMENT, NAME=M_STRAP_TOROID1B_AFT
     868, SNEG
     869, SNEG
     870, SNEG
     871, SNEG
     892, SNEG
     893, SNEG
     894, SNEG
     895, SNEG
     900, SNEG
     901, SNEG
     902, SNEG
     903, SNEG
*SURFACE, TYPE=ELEMENT, NAME=S_STRAP_TOROID1B_AFT
   10450, SPOS
   10451, SPOS
   10452, SPOS
   10453, SPOS
   11402, SPOS
   11404, SPOS
   11406, SPOS
   11407, SPOS
   11408, SPOS
   11409, SPOS
**
*CONTACT PAIR, INTERACTION=STRAP_TOROID1B_AFT
S_STRAP_TOROID1B_AFT, M_STRAP_TOROID1B_AFT
*SURFACE INTERACTION, NAME=STRAP_TOROID1B_AFT
*FRICTION
0.2,
**
** STRAP_TOROID2a_AFT
**
*SURFACE, TYPE=ELEMENT, NAME=M_STRAP_TOROID2A_AFT
     125, SNEG
     126, SNEG
     127, SNEG
     128, SNEG
     129, SNEG
     130, SNEG
     131, SNEG
     132, SNEG
     150, SNEG
     152, SNEG
*SURFACE, TYPE=ELEMENT, NAME=S_STRAP_TOROID2A_AFT
   10306, SPOS
   10307, SPOS
   11426, SPOS
   11427, SPOS
   11428, SPOS
   11429, SPOS
   11432, SPOS
   11433, SPOS
**
*CONTACT PAIR, INTERACTION=STRAP_TOROID2A_AFT
S_STRAP_TOROID2A_AFT, M_STRAP_TOROID2A_AFT
*SURFACE INTERACTION, NAME=STRAP_TOROID2A_AFT
*FRICTION
0.2,
**
** STRAP_TOROID2a_FWD
**
*SURFACE, TYPE=ELEMENT, NAME=M_STRAP_TOROID2A_FWD
     173, SNEG
     175, SNEG
     193, SNEG
     194, SNEG
     195, SNEG
     196, SNEG
     197, SNEG
     198, SNEG
     199, SNEG
     200, SNEG
*SURFACE, TYPE=ELEMENT, NAME=S_STRAP_TOROID2A_FWD
   10708, SPOS
   10709, SPOS
   11434, SPOS
   11435, SPOS
   11438, SPOS
   11439, SPOS
   11440, SPOS
   11441, SPOS
**
*CONTACT PAIR, INTERACTION=STRAP_TOROID2A_FWD
S_STRAP_TOROID2A_FWD, M_STRAP_TOROID2A_FWD
*SURFACE INTERACTION, NAME=STRAP_TOROID2A_FWD
*FRICTION
0.2,
**
** STRAP_TOROID2b_AFT
**
*SURFACE, TYPE=ELEMENT, NAME=M_STRAP_TOROID2B_AFT
    7335, SNEG
    7336, SNEG
    7337, SNEG
    7338, SNEG
    7479, SNEG
    7481, SNEG
    9719, SNEG
    9720, SNEG
    9721, SNEG
    9722, SNEG
*SURFACE, TYPE=ELEMENT, NAME=S_STRAP_TOROID2B_AFT
   11651, SPOS
   11653, SPOS
   11656, SPOS
   11657, SPOS
   11658, SPOS
   11659, SPOS
   11660, SPOS
   11661, SPOS
**
*CONTACT PAIR, INTERACTION=STRAP_TOROID2B_AFT
S_STRAP_TOROID2B_AFT, M_STRAP_TOROID2B_AFT
*SURFACE INTERACTION, NAME=STRAP_TOROID2B_AFT
*FRICTION
0.2,
**
** STRAP_TOROID2b_FWD
**
*SURFACE, TYPE=ELEMENT, NAME=M_STRAP_TOROID2B_FWD
    1467, SNEG
    1468, SNEG
    1469, SNEG
    1470, SNEG
    1487, SNEG
    1488, SNEG
    1489, SNEG
    1490, SNEG
    7391, SNEG
    7392, SNEG
    7393, SNEG
    7394, SNEG
*SURFACE, TYPE=ELEMENT, NAME=S_STRAP_TOROID2B_FWD
   10474, SPOS
   10475, SPOS
   10476, SPOS
   10477, SPOS
   11442, SPOS
   11443, SPOS
   11444, SPOS
   11445, SPOS
   11446, SPOS
   11448, SPOS
**
*CONTACT PAIR, INTERACTION=STRAP_TOROID2B_FWD
S_STRAP_TOROID2B_FWD, M_STRAP_TOROID2B_FWD
*SURFACE INTERACTION, NAME=STRAP_TOROID2B_FWD
*FRICTION
0.2,
**
** STRAP_TOROID3a_AFT
**
*SURFACE, TYPE=ELEMENT, NAME=M_STRAP_TOROID3A_AFT
     213, SNEG
     215, SNEG
     233, SNEG
     234, SNEG
     235, SNEG
     236, SNEG
     237, SNEG
     238, SNEG
     239, SNEG
     240, SNEG
*SURFACE, TYPE=ELEMENT, NAME=S_STRAP_TOROID3A_AFT
   10332, SPOS
   10333, SPOS
   11466, SPOS
   11467, SPOS
   11468, SPOS
   11469, SPOS
   11470, SPOS
   11471, SPOS
**
*CONTACT PAIR, INTERACTION=STRAP_TOROID3A_AFT
S_STRAP_TOROID3A_AFT, M_STRAP_TOROID3A_AFT
*SURFACE INTERACTION, NAME=STRAP_TOROID3A_AFT
*FRICTION
0.2,
**
** STRAP_TOROID3a_FWD
**
*SURFACE, TYPE=ELEMENT, NAME=M_STRAP_TOROID3A_FWD
     289, SNEG
     290, SNEG
     291, SNEG
     292, SNEG
     302, SNEG
     304, SNEG
     313, SNEG
     314, SNEG
     315, SNEG
     316, SNEG
*SURFACE, TYPE=ELEMENT, NAME=S_STRAP_TOROID3A_FWD
   10682, SPOS
   10683, SPOS
   11474, SPOS
   11475, SPOS
   11476, SPOS
   11477, SPOS
   11478, SPOS
   11480, SPOS
**
*CONTACT PAIR, INTERACTION=STRAP_TOROID3A_FWD
S_STRAP_TOROID3A_FWD, M_STRAP_TOROID3A_FWD
*SURFACE INTERACTION, NAME=STRAP_TOROID3A_FWD
*FRICTION
0.2,
**
** STRAP_TOROID3b_AFT
**
*SURFACE, TYPE=ELEMENT, NAME=M_STRAP_TOROID3B_AFT
    1690, SNEG
    1691, SNEG
    1692, SNEG
    1693, SNEG
    1714, SNEG
    1715, SNEG
    1716, SNEG
    1717, SNEG
    1895, SNEG
    1897, SNEG
*SURFACE, TYPE=ELEMENT, NAME=S_STRAP_TOROID3B_AFT
   10600, SPOS
   10601, SPOS
   11450, SPOS
   11452, SPOS
   11454, SPOS
   11455, SPOS
   11456, SPOS
   11457, SPOS
**
*CONTACT PAIR, INTERACTION=STRAP_TOROID3B_AFT
S_STRAP_TOROID3B_AFT, M_STRAP_TOROID3B_AFT
*SURFACE INTERACTION, NAME=STRAP_TOROID3B_AFT
*FRICTION
0.2,
**
** STRAP_TOROID3b_FWD
**
*SURFACE, TYPE=ELEMENT, NAME=M_STRAP_TOROID3B_FWD
    1975, SNEG
    1977, SNEG
    1978, SNEG
    1979, SNEG
    1980, SNEG
    1981, SNEG
    2002, SNEG
    2003, SNEG
    2004, SNEG
    2005, SNEG
*SURFACE, TYPE=ELEMENT, NAME=S_STRAP_TOROID3B_FWD
   10502, SPOS
   10503, SPOS
   11460, SPOS
   11461, SPOS
   11462, SPOS
   11463, SPOS
   11464, SPOS
   11465, SPOS
**
*CONTACT PAIR, INTERACTION=STRAP_TOROID3B_FWD
S_STRAP_TOROID3B_FWD, M_STRAP_TOROID3B_FWD
*SURFACE INTERACTION, NAME=STRAP_TOROID3B_FWD
*FRICTION
0.2,
**
** STRAP_TOROID4a_AFT
**
*SURFACE, TYPE=ELEMENT, NAME=M_STRAP_TOROID4A_AFT
     361, SNEG
     362, SNEG
     363, SNEG
     364, SNEG
     365, SNEG
     366, SNEG
     367, SNEG
     368, SNEG
     369, SNEG
     370, SNEG
*SURFACE, TYPE=ELEMENT, NAME=S_STRAP_TOROID4A_AFT
   10359, SPOS
   10361, SPOS
   11618, SPOS
   11620, SPOS
   11622, SPOS
   11623, SPOS
   11624, SPOS
   11625, SPOS
**
*CONTACT PAIR, INTERACTION=STRAP_TOROID4A_AFT
S_STRAP_TOROID4A_AFT, M_STRAP_TOROID4A_AFT
*SURFACE INTERACTION, NAME=STRAP_TOROID4A_AFT
*FRICTION
0.2,
**
** STRAP_TOROID4a_FWD
**
*SURFACE, TYPE=ELEMENT, NAME=M_STRAP_TOROID4A_FWD
     329, SNEG
     330, SNEG
     331, SNEG
     332, SNEG
     415, SNEG
     416, SNEG
     417, SNEG
     418, SNEG
     419, SNEG
     420, SNEG
*SURFACE, TYPE=ELEMENT, NAME=S_STRAP_TOROID4A_FWD
   10362, SPOS
   10364, SPOS
   11627, SPOS
   11629, SPOS
   11630, SPOS
   11631, SPOS
   11632, SPOS
   11633, SPOS
**
*CONTACT PAIR, INTERACTION=STRAP_TOROID4A_FWD
S_STRAP_TOROID4A_FWD, M_STRAP_TOROID4A_FWD
*SURFACE INTERACTION, NAME=STRAP_TOROID4A_FWD
*FRICTION
0.2,
**
** STRAP_TOROID4b_AFT
**
*SURFACE, TYPE=ELEMENT, NAME=M_STRAP_TOROID4B_AFT
    2188, SNEG
    2189, SNEG
    2218, SNEG
    2219, SNEG
    2220, SNEG
    2221, SNEG
    2250, SNEG
    2251, SNEG
    2252, SNEG
    2253, SNEG
*SURFACE, TYPE=ELEMENT, NAME=S_STRAP_TOROID4B_AFT
   10574, SPOS
   10575, SPOS
   11530, SPOS
   11531, SPOS
   11532, SPOS
   11533, SPOS
   11534, SPOS
   11536, SPOS
**
*CONTACT PAIR, INTERACTION=STRAP_TOROID4B_AFT
S_STRAP_TOROID4B_AFT, M_STRAP_TOROID4B_AFT
*SURFACE INTERACTION, NAME=STRAP_TOROID4B_AFT
*FRICTION
0.2,
**
** STRAP_TOROID4b_FWD
**
*SURFACE, TYPE=ELEMENT, NAME=M_STRAP_TOROID4B_FWD
    2016, SNEG
    2017, SNEG
    2018, SNEG
    2019, SNEG
    2020, SNEG
    2021, SNEG
    2550, SNEG
    2551, SNEG
    2552, SNEG
    2553, SNEG
*SURFACE, TYPE=ELEMENT, NAME=S_STRAP_TOROID4B_FWD
   10528, SPOS
   10529, SPOS
   11540, SPOS
   11541, SPOS
   11542, SPOS
   11543, SPOS
   11544, SPOS
   11545, SPOS
**
*CONTACT PAIR, INTERACTION=STRAP_TOROID4B_FWD
S_STRAP_TOROID4B_FWD, M_STRAP_TOROID4B_FWD
*SURFACE INTERACTION, NAME=STRAP_TOROID4B_FWD
*FRICTION
0.2,
**
** STRAP_TOROID5a_AFT
**
*SURFACE, TYPE=ELEMENT, NAME=M_STRAP_TOROID5A_AFT
     465, SNEG
     466, SNEG
     467, SNEG
     468, SNEG
     469, SNEG
     470, SNEG
     471, SNEG
     472, SNEG
    9863, SNEG
    9865, SNEG
*SURFACE, TYPE=ELEMENT, NAME=S_STRAP_TOROID5A_AFT
   10334, SPOS
   10336, SPOS
   11482, SPOS
   11483, SPOS
   11484, SPOS
   11485, SPOS
   11487, SPOS
   11489, SPOS
**
*CONTACT PAIR, INTERACTION=STRAP_TOROID5A_AFT
S_STRAP_TOROID5A_AFT, M_STRAP_TOROID5A_AFT
*SURFACE INTERACTION, NAME=STRAP_TOROID5A_AFT
*FRICTION
0.2,
**
** STRAP_TOROID5a_FWD
**
*SURFACE, TYPE=ELEMENT, NAME=M_STRAP_TOROID5A_FWD
     421, SNEG
     422, SNEG
     423, SNEG
     424, SNEG
     434, SNEG
     436, SNEG
     521, SNEG
     522, SNEG
     523, SNEG
     524, SNEG
*SURFACE, TYPE=ELEMENT, NAME=S_STRAP_TOROID5A_FWD
   10387, SPOS
   10389, SPOS
   11490, SPOS
   11491, SPOS
   11492, SPOS
   11493, SPOS
   11494, SPOS
   11496, SPOS
**
*CONTACT PAIR, INTERACTION=STRAP_TOROID5A_FWD
S_STRAP_TOROID5A_FWD, M_STRAP_TOROID5A_FWD
*SURFACE INTERACTION, NAME=STRAP_TOROID5A_FWD
*FRICTION
0.2,
**
** STRAP_TOROID5b_FWD
**
*SURFACE, TYPE=ELEMENT, NAME=M_STRAP_TOROID5B_FWD
    2554, SNEG
    2555, SNEG
    2556, SNEG
    2557, SNEG
    4503, SNEG
    4505, SNEG
    4506, SNEG
    4507, SNEG
    4508, SNEG
    4509, SNEG
*SURFACE, TYPE=ELEMENT, NAME=S_STRAP_TOROID5B_FWD
   10530, SPOS
   10531, SPOS
   11546, SPOS
   11547, SPOS
   11548, SPOS
   11549, SPOS
   11550, SPOS
   11552, SPOS
**
*CONTACT PAIR, INTERACTION=STRAP_TOROID5B_FWD
S_STRAP_TOROID5B_FWD, M_STRAP_TOROID5B_FWD
*SURFACE INTERACTION, NAME=STRAP_TOROID5B_FWD
*FRICTION
0.2,
**
** STRAP_TOROID6a_AFT
**
*SURFACE, TYPE=ELEMENT, NAME=M_STRAP_TOROID6A_AFT
     609, SNEG
     610, SNEG
     621, SNEG
     622, SNEG
     623, SNEG
     624, SNEG
     625, SNEG
     626, SNEG
     627, SNEG
     628, SNEG
*SURFACE, TYPE=ELEMENT, NAME=S_STRAP_TOROID6A_AFT
   10447, SPOS
   10449, SPOS
   11498, SPOS
   11499, SPOS
   11500, SPOS
   11501, SPOS
   11502, SPOS
   11504, SPOS
**
*CONTACT PAIR, INTERACTION=STRAP_TOROID6A_AFT
S_STRAP_TOROID6A_AFT, M_STRAP_TOROID6A_AFT
*SURFACE INTERACTION, NAME=STRAP_TOROID6A_AFT
*FRICTION
0.2,
**
** STRAP_TOROID6b_FWD
**
*SURFACE, TYPE=ELEMENT, NAME=M_STRAP_TOROID6B_FWD
    4520, SNEG
    4521, SNEG
    4522, SNEG
    4523, SNEG
    4524, SNEG
    4525, SNEG
    4534, SNEG
    4535, SNEG
    4536, SNEG
    4537, SNEG
*SURFACE, TYPE=ELEMENT, NAME=S_STRAP_TOROID6B_FWD
   10556, SPOS
   10557, SPOS
   11564, SPOS
   11565, SPOS
   11566, SPOS
   11567, SPOS
   11568, SPOS
   11569, SPOS
**
*CONTACT PAIR, INTERACTION=STRAP_TOROID6B_FWD
S_STRAP_TOROID6B_FWD, M_STRAP_TOROID6B_FWD
*SURFACE INTERACTION, NAME=STRAP_TOROID6B_FWD
*FRICTION
0.2,
**
** STRAP_TOROID7b_FWD
**
*SURFACE, TYPE=ELEMENT, NAME=M_STRAP_TOROID7B_FWD
    5991, SNEG
    5992, SNEG
    5993, SNEG
    5994, SNEG
    6055, SNEG
    6056, SNEG
    6057, SNEG
    6058, SNEG
    6324, SNEG
    6325, SNEG
*SURFACE, TYPE=ELEMENT, NAME=S_STRAP_TOROID7B_FWD
   10571, SPOS
   10573, SPOS
   11586, SPOS
   11587, SPOS
   11588, SPOS
   11589, SPOS
   11590, SPOS
   11592, SPOS
**
*CONTACT PAIR, INTERACTION=STRAP_TOROID7B_FWD
S_STRAP_TOROID7B_FWD, M_STRAP_TOROID7B_FWD
*SURFACE INTERACTION, NAME=STRAP_TOROID7B_FWD
*FRICTION
0.2,
**
** STRAP_TOROID8b_FWD
**
*SURFACE, TYPE=ELEMENT, NAME=M_STRAP_TOROID8B_FWD
     972, SNEG
     973, SNEG
     974, SNEG
     975, SNEG
    5711, SNEG
    5712, SNEG
    5713, SNEG
    5714, SNEG
*SURFACE, TYPE=ELEMENT, NAME=S_STRAP_TOROID8B_FWD
   11595, SPOS
   11597, SPOS
   11598, SPOS
   11599, SPOS
   11600, SPOS
   11601, SPOS
**
*CONTACT PAIR, INTERACTION=STRAP_TOROID8B_FWD
S_STRAP_TOROID8B_FWD, M_STRAP_TOROID8B_FWD
*SURFACE INTERACTION, NAME=STRAP_TOROID8B_FWD
*FRICTION
0.2,
**
** STRAP_TOROID_5b_AFT
**
*SURFACE, TYPE=ELEMENT, NAME=M_STRAP_TOROID_5B_AFT
    4107, SNEG
    4108, SNEG
    4109, SNEG
    4110, SNEG
    4151, SNEG
    4152, SNEG
    4153, SNEG
    4154, SNEG
    4386, SNEG
    4387, SNEG
    4388, SNEG
    4389, SNEG
*SURFACE, TYPE=ELEMENT, NAME=S_STRAP_TOROID_5B_AFT
   12482, SPOS
   12483, SPOS
   12484, SPOS
   12485, SPOS
   12486, SPOS
   12488, SPOS
   12490, SPOS
   12491, SPOS
   12492, SPOS
   12493, SPOS
**
*CONTACT PAIR, INTERACTION=STRAP_TOROID_5B_AFT
S_STRAP_TOROID_5B_AFT, M_STRAP_TOROID_5B_AFT
*SURFACE INTERACTION, NAME=STRAP_TOROID_5B_AFT
*FRICTION
0.2,
**
** STRAP_TOROID_6b_AFT
**
*SURFACE, TYPE=ELEMENT, NAME=M_STRAP_TOROID_6B_AFT
    4789, SNEG
    4790, SNEG
    4791, SNEG
    4792, SNEG
    5203, SNEG
    5204, SNEG
    5205, SNEG
    5206, SNEG
    5255, SNEG
    5256, SNEG
    5257, SNEG
    5258, SNEG
*SURFACE, TYPE=ELEMENT, NAME=S_STRAP_TOROID_6B_AFT
   12458, SPOS
   12459, SPOS
   12460, SPOS
   12461, SPOS
   12494, SPOS
   12495, SPOS
   12496, SPOS
   12497, SPOS
   12498, SPOS
   12500, SPOS
**
*CONTACT PAIR, INTERACTION=STRAP_TOROID_6B_AFT
S_STRAP_TOROID_6B_AFT, M_STRAP_TOROID_6B_AFT
*SURFACE INTERACTION, NAME=STRAP_TOROID_6B_AFT
*FRICTION
0.2,
**
** STRAP_TOROID_7b_AFT
**
*SURFACE, TYPE=ELEMENT, NAME=M_STRAP_TOROID_7B_AFT
    5563, SNEG
    5564, SNEG
    5565, SNEG
    5566, SNEG
    5567, SNEG
    5568, SNEG
    5569, SNEG
    5570, SNEG
    6594, SNEG
    6596, SNEG
*SURFACE, TYPE=ELEMENT, NAME=S_STRAP_TOROID_7B_AFT
   10680, SPOS
   10681, SPOS
   11579, SPOS
   11581, SPOS
   11582, SPOS
   11583, SPOS
   11584, SPOS
   11585, SPOS
**
*CONTACT PAIR, INTERACTION=STRAP_TOROID_7B_AFT
S_STRAP_TOROID_7B_AFT, M_STRAP_TOROID_7B_AFT
*SURFACE INTERACTION, NAME=STRAP_TOROID_7B_AFT
*FRICTION
0.2,
**
** STRAP_TOROID_8b_AFT
**
*SURFACE, TYPE=ELEMENT, NAME=M_STRAP_TOROID_8B_AFT
    5639, SNEG
    5640, SNEG
    5641, SNEG
    5642, SNEG
    5927, SNEG
    5928, SNEG
    5929, SNEG
    5930, SNEG
*SURFACE, TYPE=ELEMENT, NAME=S_STRAP_TOROID_8B_AFT
   11602, SPOS
   11603, SPOS
   11604, SPOS
   11605, SPOS
   11608, SPOS
   11609, SPOS
**
*CONTACT PAIR, INTERACTION=STRAP_TOROID_8B_AFT
S_STRAP_TOROID_8B_AFT, M_STRAP_TOROID_8B_AFT
*SURFACE INTERACTION, NAME=STRAP_TOROID_8B_AFT
*FRICTION
0.2,
**
** STRAP_TOROID6a_FWD
**
*SURFACE, TYPE=ELEMENT, NAME=M_STRAP_TOROID6A_FWD
     537, SNEG
     538, SNEG
     539, SNEG
     540, SNEG
     549, SNEG
     550, SNEG
     551, SNEG
     552, SNEG
     591, SNEG
     592, SNEG
     593, SNEG
     594, SNEG
     595, SNEG
     596, SNEG
*SURFACE, TYPE=ELEMENT, NAME=S_STRAP_TOROID6A_FWD
   10390, SPOS
   10391, SPOS
   10392, SPOS
   10393, SPOS
   10394, SPOS
   10396, SPOS
   11514, SPOS
   11515, SPOS
   11516, SPOS
   11517, SPOS
   11520, SPOS
   11521, SPOS
**
*CONTACT PAIR, INTERACTION=STRAP_TOROID6A_FWD
S_STRAP_TOROID6A_FWD, M_STRAP_TOROID6A_FWD
*SURFACE INTERACTION, NAME=STRAP_TOROID6A_FWD
*FRICTION
0.2,
**
** STRAP_TOROID7a_FWD
**
*SURFACE, TYPE=ELEMENT, NAME=M_STRAP_TOROID7A_FWD
     645, SNEG
     646, SNEG
     647, SNEG
     648, SNEG
     681, SNEG
     682, SNEG
    9567, SNEG
    9568, SNEG
    9569, SNEG
    9570, SNEG
*SURFACE, TYPE=ELEMENT, NAME=S_STRAP_TOROID7A_FWD
   10411, SPOS
   10413, SPOS
   10414, SPOS
   10415, SPOS
   10416, SPOS
   10417, SPOS
   11522, SPOS
   11523, SPOS
   11524, SPOS
   11525, SPOS
   11526, SPOS
   11528, SPOS
**
*CONTACT PAIR, INTERACTION=STRAP_TOROID7A_FWD
S_STRAP_TOROID7A_FWD, M_STRAP_TOROID7A_FWD
*SURFACE INTERACTION, NAME=STRAP_TOROID7A_FWD
*FRICTION
0.2,
**
** STRAP_TOROID1b_FWD
**
*SURFACE, TYPE=ELEMENT, NAME=M_STRAP_TOROID1B_FWD
     728, SNEG
     729, SNEG
     730, SNEG
     731, SNEG
     788, SNEG
     789, SNEG
     790, SNEG
     791, SNEG
     800, SNEG
     801, SNEG
     802, SNEG
     803, SNEG
*SURFACE, TYPE=ELEMENT, NAME=S_STRAP_TOROID1B_FWD
   10498, SPOS
   10499, SPOS
   10500, SPOS
   10501, SPOS
   11610, SPOS
   11611, SPOS
   11612, SPOS
   11613, SPOS
   11614, SPOS
   11616, SPOS
**
*CONTACT PAIR, INTERACTION=STRAP_TOROID1B_FWD
S_STRAP_TOROID1B_FWD, M_STRAP_TOROID1B_FWD
*SURFACE INTERACTION, NAME=STRAP_TOROID1B_FWD
*FRICTION
0.2,
**
** STRAP_TOROID7a_AFT
**
*SURFACE, TYPE=ELEMENT, NAME=M_STRAP_TOROID7A_AFT
     633, SNEG
     634, SNEG
     635, SNEG
     636, SNEG
     649, SNEG
     650, SNEG
     651, SNEG
     652, SNEG
     693, SNEG
     694, SNEG
     695, SNEG
     696, SNEG
*SURFACE, TYPE=ELEMENT, NAME=S_STRAP_TOROID7A_AFT
   10418, SPOS
   10419, SPOS
   10420, SPOS
   10421, SPOS
   11507, SPOS
   11509, SPOS
   11510, SPOS
   11511, SPOS
   11512, SPOS
   11513, SPOS
**
*CONTACT PAIR, INTERACTION=STRAP_TOROID7A_AFT
S_STRAP_TOROID7A_AFT, M_STRAP_TOROID7A_AFT
*SURFACE INTERACTION, NAME=STRAP_TOROID7A_AFT
*FRICTION
0.2,
**
** elset ALL_MASSIVE_ELEMENTS contains all 12457 elements that can have mass
*ELSET, ELSET=ALL_MASSIVE_ELEMENTS
ALL_SHELL_ANISO,
ALL_SHELL_ISO,
ALL_B31_BARL,
** ---------------------------------------------------
*NSET, NSET=Shoulder
7603,
** ---------------------------------------------------
*ELSET, ELSET=SF_Chev
11949, 11951, 11953, 11955
**
*ELSET, ELSET=SF_Loop_Aft_Aside
** T2/T3         T4/T5         T6/T7         CB/T1
10318, 10319, 10347, 10349, 10434, 10436, 10299, 10301
**
*ELSET, ELSET=SF_Loop_Aft_Bside
** T1/T2         T3/T4         T5/T6
10462, 10464, 10588, 10589, 12472, 12473
**
*ELSET, ELSET=SF_Loop_Fwd_Aside
** T4/T5         T6/T7         T2/T3         CB/T1
10374, 10376, 10402, 10404, 10696, 10697, 10710, 10712
**
*ELSET, ELSET=SF_Loop_Fwd_Bside
** T1/T2         T3/T4         T5/T6
10487, 10489, 10514, 10515, 10542, 10543
**
*ELSET, ELSET=SF_Radial
11710, 11711
*ELSET, ELSET=SF_Cords_AFT
**12076, 12092, 12128, 12164, 12208, 12232, 12256, 12308, 12370
** No Tri-torus
12076, 12092, 12128, 12164, 12208, 12308, 12370, 12404
*ELSET, ELSET=SF_Cords_FWD
**12084, 12102, 12115, 12146, 12184, 12279, 12338, 12404, 12440
** No Tri-torus
12084, 12102, 12115, 12146, 12184, 12279, 12338, 12440
** ---------------------------------------------------
**ELSET, ELSET=ALL_STRAPS
**SF_Chev,
**SF_Loop_Aft_Aside,
**SF_Loop_Aft_Bside,
**SF_Loop_Fwd_Aside,
**SF_Loop_Fwd_Bside,
**SF_Radial,
***----------------------------------------
**TIME POINTS, NAME=Times
**   0.0, 0.219, 0.357, 0.454, 0.53, 1.0
**
*STEP, INC=100, NLGEOM, NAME=Inflation
**DYNAMIC, APPLICATION=QUASI-STATIC
*STATIC
0.01, 1.0,,
*OUTPUT, FIELD
*NODE OUTPUT
U,
*ELEMENT OUTPUT
SF,
E,
NE,
LE,
*MONITOR, DOF=3, NODE=7603
*NODE PRINT, NSET=Shoulder, SUMMARY=NO
U1,U3,
*NODE PRINT, SUMMARY=NO, TOTALS=YES, GLOBAL=YES, FREQUENCY=999
RF3,
**
** output request from "SPCFORCES(SORT1,PLOT)=ALL"
*OUTPUT, FIELD
*NODE OUTPUT
RF,
*EL PRINT, ELSET=SF_Chev,FREQUENCY=999,POSITION=CENTROIDAL, SUMMARY=NO
SF2,
*EL PRINT, ELSET=SF_Loop_Aft_Aside,FREQUENCY=999,POSITION=CENTROIDAL, SUMMARY=NO
SF2,
*EL PRINT, ELSET=SF_Loop_Aft_Bside,FREQUENCY=999,POSITION=CENTROIDAL, SUMMARY=NO
SF2,
*EL PRINT, ELSET=SF_Loop_Fwd_Aside,FREQUENCY=999,POSITION=CENTROIDAL, SUMMARY=NO
SF2,
*EL PRINT, ELSET=SF_Loop_Fwd_Bside,FREQUENCY=999,POSITION=CENTROIDAL, SUMMARY=NO
SF2,
*EL PRINT, ELSET=SF_Radial,FREQUENCY=999,POSITION=CENTROIDAL, SUMMARY=NO
SF2,
*EL PRINT, ELSET=SF_Cords_AFT,FREQUENCY=999,POSITION=CENTROIDAL, SUMMARY=NO
SF1,
E,
NE,
LE,
*EL PRINT, ELSET=SF_Cords_FWD,FREQUENCY=999,POSITION=CENTROIDAL, SUMMARY=NO
SF1,
E,
NE,
LE,
**OUTPUT, FIELD
***ELEMENT OUTPUT
**SF,
***ELEMENT OUTPUT, POS=NODES, ELSET=ALL_SHELL_ISO
**         2,         3,         4,
**NFORC,
**CONTACT OUTPUT, VARIABLE=ALL
*BOUNDARY, OP=NEW
** add cord shunt nodes
  12158, 1,6, 0.
  12161, 2,2, 0.
  12161, 4,4, 0.
  12161, 6,6, 0.
** from SPCADD set 2 and SPC set 6
    2606, 1,2, 0.
    2606, 4,4, 0.
    2606, 6,6, 0.
    2607, 1,2, 0.
    2607, 4,4, 0.
    2607, 6,6, 0.
    2612, 1,2, 0.
    2612, 4,4, 0.
    2612, 6,6, 0.
    2617, 1,2, 0.
    2617, 4,4, 0.
    2617, 6,6, 0.
    2621, 1,2, 0.
    2621, 4,4, 0.
    2621, 6,6, 0.
    2622, 1,2, 0.
    2622, 4,4, 0.
    2622, 6,6, 0.
    2630, 1,2, 0.
    2630, 4,4, 0.
** ... 28 like lines cut
*BOUNDARY, OP=NEW
** from SPCADD set 2 and SPC set 8
     173, 1,1, 0.
    2611, 1,1, 0.
    2619, 1,1, 0.
    2625, 1,1, 0.
   10516, 1,1, 0.
   10533, 1,1, 0.
   10534, 1,1, 0.
   10535, 1,1, 0.
   10537, 1,1, 0.
   10538, 1,1, 0.
   10539, 1,1, 0.
   10546, 1,1, 0.
   10548, 1,1, 0.
   10549, 1,1, 0.
   10551, 1,1, 0.
   10558, 1,1, 0.
   10559, 1,1, 0.
   10560, 1,1, 0.
   10562, 1,1, 0.
   10563, 1,1, 0.
** ... 4 like lines cut
*BOUNDARY, OP=NEW
** from SPCADD set 2 and SPC set 9
      10, 1,6, 0.
      11, 1,6, 0.
      12, 1,6, 0.
      13, 1,6, 0.
      14, 1,6, 0.
      15, 1,6, 0.
    2605, 1,6, 0.
    2613, 1,6, 0.
    2614, 1,6, 0.
    2620, 1,6, 0.
    2631, 1,6, 0.
    2632, 1,6, 0.
    2691, 1,6, 0.
    2692, 1,6, 0.
    2817, 1,6, 0.
    2818, 1,6, 0.
    3144, 1,6, 0.
    3145, 1,6, 0.
    3187, 1,6, 0.
    3188, 1,6, 0.
** ... 24 like lines cut
*BOUNDARY, OP=NEW
** from SPCADD set 2 and SPC set 10
       1, 2,2, 0.
       1, 4,4, 0.
       1, 6,6, 0.
       2, 2,2, 0.
       2, 4,4, 0.
       2, 6,6, 0.
       3, 2,2, 0.
       3, 4,4, 0.
       3, 6,6, 0.
       4, 2,2, 0.
       4, 4,4, 0.
       4, 6,6, 0.
       5, 2,2, 0.
       5, 4,4, 0.
       5, 6,6, 0.
       6, 2,2, 0.
       6, 4,4, 0.
       6, 6,6, 0.
       7, 2,2, 0.
       7, 4,4, 0.
** ... 3394 like lines cut
*DLOAD, OP=NEW
** from LOAD set 2 and PLOADi set 3
** overall scale factor = 1.
** scale factor for this PLOADi set = 1.
       1, P, -12.
       2, P, -12.
       3, P, -12.
       4, P, -12.
       5, P, -12.
       6, P, -12.
       7, P, -12.
       8, P, -12.
       9, P, -12.
      10, P, -12.
      11, P, -12.
      12, P, -12.
      13, P, -12.
      14, P, -12.
      15, P, -12.
      16, P, -12.
      17, P, -12.
      18, P, -12.
      19, P, -12.
      20, P, -12.
** ... 8079 like lines cut
*END STEP
** ---------------------------------------------------
*STEP, INC=500, NLGEOM, NAME=Case1_Infl+Aero
*DYNAMIC, APPLICATION=QUASI-STATIC
0.01, 1.0,, 0.05
**OUTPUT, FIELD, TIME MARKS=YES, TIME POINTS=Times
*OUTPUT, FIELD, FREQUENCY=1
*NODE OUTPUT
U,
RF,
*ELEMENT OUTPUT
SF,
E,
NE,
LE,
*MONITOR, DOF=3, NODE=7603
*NODE PRINT, NSET=Shoulder, SUMMARY=NO
U1,U3,
*NODE PRINT, SUMMARY=NO, TOTALS=YES, GLOBAL=YES, FREQUENCY=1
RF3,
**
*EL PRINT, ELSET=SF_Chev,FREQUENCY=1,POSITION=CENTROIDAL, SUMMARY=NO
SF2,
*EL PRINT, ELSET=SF_Loop_Aft_Aside,FREQUENCY=1,POSITION=CENTROIDAL, SUMMARY=NO
SF2,
*EL PRINT, ELSET=SF_Loop_Aft_Bside,FREQUENCY=1,POSITION=CENTROIDAL, SUMMARY=NO
SF2,
*EL PRINT, ELSET=SF_Loop_Fwd_Aside,FREQUENCY=1,POSITION=CENTROIDAL, SUMMARY=NO
SF2,
*EL PRINT, ELSET=SF_Loop_Fwd_Bside,FREQUENCY=1,POSITION=CENTROIDAL, SUMMARY=NO
SF2,
*EL PRINT, ELSET=SF_Radial,FREQUENCY=1,POSITION=CENTROIDAL, SUMMARY=NO
SF2,
*EL PRINT, ELSET=SF_Cords_AFT,FREQUENCY=1,POSITION=CENTROIDAL, SUMMARY=NO
SF1,
E,
LE,
*EL PRINT, ELSET=SF_Cords_FWD,FREQUENCY=1,POSITION=CENTROIDAL, SUMMARY=NO
SF1,
E,
LE,
**OUTPUT, FIELD
***ELEMENT OUTPUT
**SF,
***ELEMENT OUTPUT, POS=NODES, ELSET=ALL_SHELL_ISO
**         2,         3,         4,
**NFORC,
**CONTACT OUTPUT, VARIABLE=ALL
*BOUNDARY, OP=NEW
** add cord shunt nodes
  12158, 1,6, 0.
  12161, 2,2, 0.
  12161, 4,4, 0.
  12161, 6,6, 0.
** from SPCADD set 2 and SPC set 6
    2606, 1,2, 0.
    2606, 4,4, 0.
    2606, 6,6, 0.
    2607, 1,2, 0.
    2607, 4,4, 0.
    2607, 6,6, 0.
    2612, 1,2, 0.
    2612, 4,4, 0.
    2612, 6,6, 0.
    2617, 1,2, 0.
    2617, 4,4, 0.
    2617, 6,6, 0.
    2621, 1,2, 0.
    2621, 4,4, 0.
    2621, 6,6, 0.
    2622, 1,2, 0.
    2622, 4,4, 0.
    2622, 6,6, 0.
    2630, 1,2, 0.
    2630, 4,4, 0.
** ... 28 like lines cut
*BOUNDARY, OP=NEW
** from SPCADD set 2 and SPC set 8
     173, 1,1, 0.
    2611, 1,1, 0.
    2619, 1,1, 0.
    2625, 1,1, 0.
   10516, 1,1, 0.
   10533, 1,1, 0.
   10534, 1,1, 0.
   10535, 1,1, 0.
   10537, 1,1, 0.
   10538, 1,1, 0.
   10539, 1,1, 0.
   10546, 1,1, 0.
   10548, 1,1, 0.
   10549, 1,1, 0.
   10551, 1,1, 0.
   10558, 1,1, 0.
   10559, 1,1, 0.
   10560, 1,1, 0.
   10562, 1,1, 0.
   10563, 1,1, 0.
** ... 4 like lines cut
*BOUNDARY, OP=NEW
** from SPCADD set 2 and SPC set 9
      10, 1,6, 0.
      11, 1,6, 0.
      12, 1,6, 0.
      13, 1,6, 0.
      14, 1,6, 0.
      15, 1,6, 0.
    2605, 1,6, 0.
    2613, 1,6, 0.
    2614, 1,6, 0.
    2620, 1,6, 0.
    2631, 1,6, 0.
    2632, 1,6, 0.
    2691, 1,6, 0.
    2692, 1,6, 0.
    2817, 1,6, 0.
    2818, 1,6, 0.
    3144, 1,6, 0.
    3145, 1,6, 0.
    3187, 1,6, 0.
    3188, 1,6, 0.
** ... 24 like lines cut
*BOUNDARY, OP=NEW
** from SPCADD set 2 and SPC set 10
       1, 2,2, 0.
       1, 4,4, 0.
       1, 6,6, 0.
       2, 2,2, 0.
       2, 4,4, 0.
       2, 6,6, 0.
       3, 2,2, 0.
       3, 4,4, 0.
       3, 6,6, 0.
       4, 2,2, 0.
       4, 4,4, 0.
       4, 6,6, 0.
       5, 2,2, 0.
       5, 4,4, 0.
       5, 6,6, 0.
       6, 2,2, 0.
       6, 4,4, 0.
       6, 6,6, 0.
       7, 2,2, 0.
       7, 4,4, 0.
** ... 3394 like lines cut
*DLOAD, OP=NEW
** from LOAD set 4 and PLOADi set 3
** overall scale factor = 1.
** scale factor for this PLOADi set = 1.
       1, P, -12.
       2, P, -12.
       3, P, -12.
       4, P, -12.
       5, P, -12.
       6, P, -12.
       7, P, -12.
       8, P, -12.
       9, P, -12.
      10, P, -12.
      11, P, -12.
      12, P, -12.
      13, P, -12.
      14, P, -12.
      15, P, -12.
      16, P, -12.
      17, P, -12.
      18, P, -12.
      19, P, -12.
      20, P, -12.
** ... 8079 like lines cut
*DLOAD, OP=NEW
** from LOAD set 4 and PLOADi set 5
** overall scale factor = 1.
** scale factor for this PLOADi set = 1.
       1, P, 1.
       2, P, 1.
       3, P, 1.
       4, P, 1.
       5, P, 1.
       6, P, 1.
       7, P, 1.
       8, P, 1.
      13, P, 1.
      14, P, 1.
      15, P, 1.
      16, P, 1.
      29, P, 1.
      30, P, 1.
      31, P, 1.
      32, P, 1.
      33, P, 1.
      34, P, 1.
      35, P, 1.
      36, P, 1.
** ... 2221 like lines cut
*END STEP
